Modified 4 Bus/6_Node_with_PV_GFL/Master.dss
Clear
New Circuit.4busdybal


Redirect LoadShape.DSS
Redirect Vsource.dss
Redirect WireData.dss
Redirect LineGeometry.dss
Redirect LoadShape.dss
Redirect GrowthShape.dss
Redirect TCC_Curve.dss
Redirect Spectrum.dss
Redirect sub\Branches.dss
Redirect sub\Transformers.dss
Redirect sub\Shunts.dss
Redirect sub\Loads.dss
Redirect Monitor.dss
Redirect EnergyMeter.dss
MakeBusList
Redirect BusVoltageBases.dss  ! set voltage bases
Buscoords BusCoords.dss
GIScoords GISCoords.dss
