Modified 4 Bus/6_Node_with_PV_ES_GFM/4busdybal_VLN_elem.Txt

NODE-GROUND VOLTAGES BY CIRCUIT ELEMENT

Power Delivery Elements

Bus       (node ref)  Phase    Magnitude, kV (pu)    Angle

ELEMENT = "Vsource.SOURCE"
SOURCEBUS  (  1)    1           7.1993 (       1) /_    0.0
SOURCEBUS  (  2)    2           7.1993 (       1) /_ -120.0
SOURCEBUS  (  3)    3           7.1993 (       1) /_  120.0
------------
SOURCEBUS  (  0)    0                0 (       0) /_    0.0
SOURCEBUS  (  0)    0                0 (       0) /_    0.0
SOURCEBUS  (  0)    0                0 (       0) /_    0.0

ELEMENT = "Line.LINE1"
SOURCEBUS  (  1)    1           7.1993 (       1) /_    0.0
SOURCEBUS  (  2)    2           7.1993 (       1) /_ -120.0
SOURCEBUS  (  3)    3           7.1993 (       1) /_  120.0
------------
N2         (  4)    1           7.1041 (  0.9867) /_   -0.3
N2         (  5)    2           7.1261 (  0.9898) /_ -120.4
N2         (  6)    3           7.1183 (  0.9887) /_  119.6

ELEMENT = "Line.LINE2"
N3         (  7)    1           2.2407 (  0.9329) /_  -33.9
N3         (  8)    2           2.2465 (  0.9354) /_ -153.6
N3         (  9)    3           2.2465 (  0.9353) /_   86.1
------------
N4         ( 10)    1            1.905 (  0.7932) /_  -39.2
N4         ( 11)    2           2.0024 (  0.8337) /_ -158.8
N4         ( 12)    3           1.9555 (  0.8142) /_   79.8

ELEMENT = "Line.LINE3"
N4         ( 10)    1            1.905 (  0.7932) /_  -39.2
N4         ( 11)    2           2.0024 (  0.8337) /_ -158.8
N4         ( 12)    3           1.9555 (  0.8142) /_   79.8
------------
N5         ( 13)    1           1.9024 (  0.7921) /_  -39.2
N5         ( 14)    2           1.9904 (  0.8287) /_ -158.9
N5         ( 15)    3           1.9507 (  0.8122) /_   79.5

ELEMENT = "Line.LINE4"
N5         ( 13)    1           1.9024 (  0.7921) /_  -39.2
N5         ( 14)    2           1.9904 (  0.8287) /_ -158.9
N5         ( 15)    3           1.9507 (  0.8122) /_   79.5
------------
N6         ( 16)    1           1.8932 (  0.7883) /_  -39.3
N6         ( 17)    2           1.9737 (  0.8218) /_ -159.1
N6         ( 18)    3           1.9409 (  0.8081) /_   79.0

ELEMENT = "Transformer.T1"
N2         (  4)    1           7.1041 (  0.9867) /_   -0.3
N2         (  5)    2           7.1261 (  0.9898) /_ -120.4
N2         (  6)    3           7.1183 (  0.9887) /_  119.6
N2         (  0)    0                0 (       0) /_    0.0
------------
N3         (  7)    1           2.2407 (  0.9329) /_  -33.9
N3         (  8)    2           2.2465 (  0.9354) /_ -153.6
N3         (  9)    3           2.2465 (  0.9353) /_   86.1
N3         (  0)    0                0 (       0) /_    0.0

ELEMENT = "Transformer.T2"
PVBUS      ( 19)    1          0.22475 (   0.811) /_  -69.3
PVBUS      ( 20)    2          0.22842 (  0.8242) /_  172.7
PVBUS      ( 21)    3          0.23332 (  0.8419) /_   50.9
PVBUS      (  0)    0                0 (       0) /_    0.0
------------
N5         ( 13)    1           1.9024 (  0.7921) /_  -39.2
N5         ( 14)    2           1.9904 (  0.8287) /_ -158.9
N5         ( 15)    3           1.9507 (  0.8122) /_   79.5
N5         (  0)    0                0 (       0) /_    0.0

ELEMENT = "Transformer.TSTO1"
STOBUS     ( 22)    1           0.2192 (   0.791) /_  -70.6
STOBUS     ( 23)    2          0.22286 (  0.8042) /_  171.5
STOBUS     ( 24)    3          0.22805 (  0.8229) /_   49.7
STOBUS     (  0)    0                0 (       0) /_    0.0
------------
N6         ( 16)    1           1.8932 (  0.7883) /_  -39.3
N6         ( 17)    2           1.9737 (  0.8218) /_ -159.1
N6         ( 18)    3           1.9409 (  0.8081) /_   79.0
N6         (  0)    0                0 (       0) /_    0.0

= = = = = = = = = = = = = = = = = = =  = = = = = = = = = = =  = =

Power Conversion Elements

Bus       (node ref)  Phase    Magnitude, kV (pu)    Angle

ELEMENT = "PVSystem.PV1"
PVBUS      ( 19)    1          0.22475 (   0.811) /_  -69.3
PVBUS      ( 20)    2          0.22842 (  0.8242) /_  172.7
PVBUS      ( 21)    3          0.23332 (  0.8419) /_   50.9

ELEMENT = "Storage.MYSTORAGE"
STOBUS     ( 22)    1           0.2192 (   0.791) /_  -70.6
STOBUS     ( 23)    2          0.22286 (  0.8042) /_  171.5
STOBUS     ( 24)    3          0.22805 (  0.8229) /_   49.7

ELEMENT = "Load.LOAD1"
N4         ( 10)    1            1.905 (  0.7932) /_  -39.2
N4         ( 11)    2           2.0024 (  0.8337) /_ -158.8
N4         ( 12)    3           1.9555 (  0.8142) /_   79.8
N4         (  0)    0                0 (       0) /_    0.0

ELEMENT = "Load.LOAD2"
N6         ( 16)    1           1.8932 (  0.7883) /_  -39.3
N6         ( 17)    2           1.9737 (  0.8218) /_ -159.1
N6         ( 18)    3           1.9409 (  0.8081) /_   79.0
N6         (  0)    0                0 (       0) /_    0.0

